{
	"NAME":"Rational HydroDynamics",
	"DOWNLOAD":
	"https://github.com/JadeOfMaar/RationalHydroDynamics/releases",
	"URL":
	"https://raw.githubusercontent.com/JadeOfMaar/RationalHydroDynamics/main/GameData/RationalHydroDynamics/Version/RationalHydroDynamics.version",
	"CHANGE_LOG_URL":"https://raw.githubusercontent.com/JadeOfMaar/RationalHydroDynamics/main/GameData/RationalHydroDynamics/Version/Changelog.md",
	"GITHUB":
	{
		"USERNAME":"JadeOfMaar",
		"REPOSITORY":"https://github.com/JadeOfMaar/RationalHydroDynamics",
		"ALLOW_PRE_RELEASE":true
	},
	"VERSION":
	{
		"MAJOR":1,
		"MINOR":1,
		"PATCH":0,
		"BUILD":0
	},
	"INSTALL_LOC":
	{
		"NAME": "RationalHydroDynamics",
		"PATH": "",
		"DIRECTORY": "RationalHydroDynamics/Version/",
		"FILE": "RationalHydroDynamics.version"
	}
}
